$ WAVEWATCH III Initial conditions input file
$ -------------------------------------------
 1
$
0.2 0.01 270. 120 0.03 0.05 0. 10 3  
$ 0.081 0.1 270. 2. 0.0 0.09 0. 10.E3 120.E3 10.E3  
$1
$0 0 0 0 0 0 0 0 0 0 0 0 0 0 0 0 0 0 0 0 
$0 0 0 0 0 0 0 0 0 0 0 0 0 0 0 0 0 0 0 0 
$0 0 0 0 0 0 0 0 0 0 0 0 0 0 0 0 0 0 0 0 
$0 0 0 0 0 0 0 0 0 0 0 0 0 0 0 0 0 0 0 0 
$0 0 0 0 0 0 0 0 0 0 0 0 0 0 0 0 0 0 0 0 
$0 0 0 0 0 0 0 0 0 0 0 0 0 0 0 0 0 0 0 0 
$0 0 0 0 0 0 0 0 0 0 0 0 0 0 0 0 0 0 0 0 
$0 0 0 0 0 0 0 0 0 0 0 0 0 0 0 0 0 0 0 0 
$0 0 0 0 0 0 0 0 0 0 0 0 0 0 0 0 0 0 0 0 
$0 0 0 0 0 0 0 0 0 0 0 0 0 0 0 0 0 0 0 0 
$0 0 0 0 0 0 0 0 0 0 0 0 0 0 0 0 0 0 0 0 
$0 0 0 0 0 0 0 0 0 0 0 0 0 0 0 0 0 0 0 0 
$1.0e-02 2.0e-02 1.0-01 1.1-01 1.0+00 2.0e+00 1.00+01 2.0e+01 2.9e+01 2.5e+01 1.9e+01 1.0e+01 7.0e+00 5.0+00 4.0+00 2.5e+00 1.6e+00 1.5e+00 1.0e+00 7.0e-01
$0 0 0 0 0 0 0 0 0 0 0 0 0 0 0 0 0 0 0 0 
$0 0 0 0 0 0 0 0 0 0 0 0 0 0 0 0 0 0 0 0 
$0 0 0 0 0 0 0 0 0 0 0 0 0 0 0 0 0 0 0 0 
$0 0 0 0 0 0 0 0 0 0 0 0 0 0 0 0 0 0 0 0 
$0 0 0 0 0 0 0 0 0 0 0 0 0 0 0 0 0 0 0 0 
$0 0 0 0 0 0 0 0 0 0 0 0 0 0 0 0 0 0 0 0 
$0 0 0 0 0 0 0 0 0 0 0 0 0 0 0 0 0 0 0 0 
$0 0 0 0 0 0 0 0 0 0 0 0 0 0 0 0 0 0 0 0 
$0 0 0 0 0 0 0 0 0 0 0 0 0 0 0 0 0 0 0 0 
$0 0 0 0 0 0 0 0 0 0 0 0 0 0 0 0 0 0 0 0 
$0 0 0 0 0 0 0 0 0 0 0 0 0 0 0 0 0 0 0 0 
